Circuit: * D:\LT SPICE\CMOS Differential Amplifier with Current Mirror Load.asc

Instance "m1": Length shorter than recommended for a level 1 MOSFET.
Instance "m1": Width narrower than recommended for a level 1 MOSFET.
Instance "m2": Length shorter than recommended for a level 1 MOSFET.
Instance "m2": Width narrower than recommended for a level 1 MOSFET.
Instance "m3": Length shorter than recommended for a level 1 MOSFET.
Instance "m3": Width narrower than recommended for a level 1 MOSFET.
Instance "m4": Length shorter than recommended for a level 1 MOSFET.
Instance "m4": Width narrower than recommended for a level 1 MOSFET.
Instance "m5": Length shorter than recommended for a level 1 MOSFET.
Instance "m6": Length shorter than recommended for a level 1 MOSFET.
Direct Newton iteration for .op point succeeded.

Date: Mon Jan 15 16:32:00 2024
Total elapsed time: 0.094 seconds.

tnom = 27
temp = 27
method = trap
totiter = 8
traniter = 0
tranpoints = 0
accept = 0
rejected = 0
matrix size = 14
fillins = 0
solver = Normal
Avg thread counts: 12.0/0.0/12.0/12.0
Matrix Compiler1:      31 opcodes
Matrix Compiler2: 1018 bytes object code size
